[
    {
        "city": "Pontiac",
        "country": "USA",
        "key": "frc1",
        "name": "FCA Foundation/Molex/3M&Oakland Schools Technical Campus Northeast",
        "nickname": "The Juggernauts",
        "state_prov": "Michigan",
        "team_number": 1
    },
    {
        "city": "Van Nuys",
        "country": "USA",
        "key": "frc4",
        "name": "Gene HAAS Foundation/Raytheon/Aerojet Rocketdyne/Sawing Services/Full Scale Effects/Environtology/Walt Disney Imagineers/NASA/Department of Defense STEM&High Tech Los Angeles",
        "nickname": "Team 4 ELEMENT",
        "state_prov": "California",
        "team_number": 4
    },
    {
        "city": "Melvindale",
        "country": "USA",
        "key": "frc5",
        "name": "Ford FIRST Robotics & Melvindale High School",
        "nickname": "Robocards",
        "state_prov": "MI",
        "team_number": 5
    },
    {
        "city": "Plymouth",
        "country": "USA",
        "key": "frc6",
        "name": "ATK (Alliant Techsystems) & Hopkins High School",
        "nickname": "The CogSquad",
        "state_prov": "MN",
        "team_number": 6
    },
    {
        "city": "Baltimore",
        "country": "USA",
        "key": "frc7",
        "name": "Lockheed Martin/Northrop Grumman/Oak Harbor Marina/US Army/jcpenney/US Army Aberdeen Test Center/Moffatt & Nichol/Baltimore Area Alliance/Mr.Brookman & Parkville High School and Center for Mathematics, Science, and Computer Science",
        "nickname": "Team007",
        "state_prov": "MD",
        "team_number": 7
    },
    {
        "city": "Palo Alto",
        "country": "USA",
        "key": "frc8",
        "name": "Apple/Bayer Fund/Intuitive Foundation/Costco/Microsoft&Palo Alto High School",
        "nickname": "Paly Robotics",
        "state_prov": "California",
        "team_number": 8
    },
    {
        "city": "Chicago",
        "country": "USA",
        "key": "frc9",
        "name": "Roosevelt High School",
        "nickname": "Roosevelt RoboRiders",
        "state_prov": "IL",
        "team_number": 9
    },
    {
        "city": "St. Louis Park",
        "country": "USA",
        "key": "frc10",
        "name": "Benilde-St. Margaret's School",
        "nickname": "Red Knights",
        "state_prov": "MN",
        "team_number": 10
    },
    {
        "city": "Flanders",
        "country": "USA",
        "key": "frc11",
        "name": "National Defense Education Program/Westec Plastics Corporation/Fluent Inc./Nokia/Chameleon Designs/MegaPhase/Mt. Olive School District/Pereira Wealth Management, LLC/L3 Harris Foundation&Mt Olive High School",
        "nickname": "MORT",
        "state_prov": "New Jersey",
        "team_number": 11
    },
    {
        "city": null,
        "country": null,
        "key": "frc13",
        "name": "Team 13",
        "nickname": "Triskadekamanics",
        "state_prov": null,
        "team_number": 13
    },
    {
        "city": null,
        "country": null,
        "key": "frc14",
        "name": "Team 14",
        "nickname": "The Rulers",
        "state_prov": null,
        "team_number": 14
    },
    {
        "city": null,
        "country": null,
        "key": "frc15",
        "name": "Team 15",
        "nickname": "Mustechs",
        "state_prov": null,
        "team_number": 15
    },
    {
        "city": "Mountain Home",
        "country": "USA",
        "key": "frc16",
        "name": "Baxter Healthcare Corporation & Mountain Home HS Career Acad",
        "nickname": "Bomb Squad",
        "state_prov": "Arkansas",
        "team_number": 16
    },
    {
        "city": null,
        "country": null,
        "key": "frc17",
        "name": "Team 17",
        "nickname": "The Brick Bombers",
        "state_prov": null,
        "team_number": 17
    },
    {
        "city": null,
        "country": null,
        "key": "frc18",
        "name": "Team 18",
        "nickname": "Team 18",
        "state_prov": null,
        "team_number": 18
    },
    {
        "city": "Greenwich",
        "country": "USA",
        "key": "frc19",
        "name": "Greenwich High School",
        "nickname": "Big Red",
        "state_prov": "CT",
        "team_number": 19
    },
    {
        "city": "Clifton Park",
        "country": "USA",
        "key": "frc20",
        "name": "GLOBALFOUNDRIES - Town of Malta Foundation/Bilinski Sausage Manufacturing Co./Advanced Information Management/Rensselaer Polytechnic Institute/Advanced Manufacturing Techniques Inc./Gene Haas Foundation/PVA/BAE ES&Shenendehowa High School",
        "nickname": "The Rocketeers",
        "state_prov": "New York",
        "team_number": 20
    },
    {
        "city": "Titusville",
        "country": "USA",
        "key": "frc21",
        "name": "Qorvo/The Boeing Company/Brevard Public Schools/ComBBAT Robotics Inc/Community Foundation for Brevard/Disney/DoD STEM/Exploration Ground Systems, NASA/Florida Power & Light/Indian River Technology llc/Knights of Columbus #5667/Lockheed Martin/Publix&Titusville High School&Astronaut High School",
        "nickname": "ComBBAT",
        "state_prov": "Florida",
        "team_number": 21
    },
    {
        "city": "Chatsworth",
        "country": "USA",
        "key": "frc22",
        "name": "Chatsworth High School",
        "nickname": "Double Deuce",
        "state_prov": "California",
        "team_number": 22
    },
    {
        "city": "Plymouth",
        "country": "USA",
        "key": "frc23",
        "name": "Pilgrim Nuclear/Entergy Corporation & Plymouth North High School",
        "nickname": "PNTA Pilgrim Nuclear Technology Alliance",
        "state_prov": "Massachusetts",
        "team_number": 23
    },
    {
        "city": null,
        "country": null,
        "key": "frc24",
        "name": "Team 24",
        "nickname": "Crusaders 2020",
        "state_prov": null,
        "team_number": 24
    },
    {
        "city": "North Brunswick",
        "country": "USA",
        "key": "frc25",
        "name": "Bristol-Myers Squibb Co./Picatinny Arsenal. US Dept of Defense/L3Harris Corporation/North Brunswick Public Schools/Raider Robotix Parent and Mentor Organization&North Brunswick Township HS",
        "nickname": "Raider Robotix",
        "state_prov": "New Jersey",
        "team_number": 25
    },
    {
        "city": "Clarkston",
        "country": "USA",
        "key": "frc27",
        "name": "Walsh Education Foundation/David W. Elliott Memorial Foundation/BorgWarner/Team 221 LLC/REV Robotics/Lawrence Plastics/Techmode, LLC/AMT/Chase Plastics/PMMI Foundation/White Pine Helicopters/Rotary Club of Clarkston/BGM Engineering/Omnia Data Services Corp/BOWMAN Chevrolet/Prime Energy CS/1-800-GOT-JUNK?/Amica/Michigan Drone Flights/Oakland University - School of Engineering and Computer Science/Atom Tech/Rehab/YAYMARSHALL/The Edwards Family/Nana & Papa McKay/FLIP/Razal Grandparents/The Law office of Robert Spencer/Linda McClelland/Online Marketing/River of Life Christian Church/BAE Systems/Shovel Bums/WSM Consulting LLC/Hungry Howie's/IGD Solutions/AUCH/Club Pilates - Clarkston/MATRIX Engineered Systems/ESSENTIAL Electric/INTERLINK Networks/adkison, need & allen, PLLC/Don's Electric/Dort Financial Credit Union/Michigan Flight Museum and Air Adventures/BHD Builders/Cyberlink Computing LLC/Clarkston Foundation/Air-Way Global Manufacturing/Kitchen tune up/Gestam... &Clarkston High School",
        "nickname": "Team RUSH",
        "state_prov": "Michigan",
        "team_number": 27
    },
    {
        "city": "Sag Harbor",
        "country": "USA",
        "key": "frc28",
        "name": "Sag Harbor UFSD/Sag Harbor Fire Department/Grenning Gallery/Sag Harbor Ambulance/Sag Harbor Boosters Club/Teachers Association of Sag Harbor&Pierson Middle High School",
        "nickname": "Pierson Whalers",
        "state_prov": "New York",
        "team_number": 28
    },
    {
        "city": null,
        "country": null,
        "key": "frc29",
        "name": "Team 29",
        "nickname": "Caught in a Brainstorm",
        "state_prov": null,
        "team_number": 29
    },
    {
        "city": "Lincroft",
        "country": "USA",
        "key": "frc30",
        "name": "Bristol-Myers Squibb & High Technology High School",
        "nickname": "FURY",
        "state_prov": "NJ",
        "team_number": 30
    },
    {
        "city": "Jenks",
        "country": "USA",
        "key": "frc31",
        "name": "Boeing/Williams Corporation/Debbie & Brent Pickle&Jenks High School",
        "nickname": "Jenks Prime Movers",
        "state_prov": "Oklahoma",
        "team_number": 31
    },
    {
        "city": "Bloomfield Hills",
        "country": "USA",
        "key": "frc33",
        "name": "Stellantis/Cross the Road Electronics/Aptiv/BAE Systems/Dewalt/Boeing/FANUC America/West Coast Products/Autodesk/PTC Onshape&Notre Dame Preparatory",
        "nickname": "Killer Bees",
        "state_prov": "Michigan",
        "team_number": 33
    },
    {
        "city": "Athens",
        "country": "USA",
        "key": "frc34",
        "name": "AUVSI Pathfinder Foundation/Boeing/FIRST in Alabama/Leidos/Limestone County Legislative Delegation/Limestone County Board of Education&Limestone Co Career Tech Ctr&Family/Community",
        "nickname": "Rockets",
        "state_prov": "Alabama",
        "team_number": 34
    },
    {
        "city": "Whitehall",
        "country": "USA",
        "key": "frc35",
        "name": "Alcoa - Howmet Castings & Whitehall High School & Montague High School",
        "nickname": "Sigma Squared",
        "state_prov": "MI",
        "team_number": 35
    },
    {
        "city": "Coral Gables",
        "country": "USA",
        "key": "frc37",
        "name": "Team 37",
        "nickname": "Junior Plaids",
        "state_prov": "FL",
        "team_number": 37
    },
    {
        "city": "Woodbury",
        "country": "USA",
        "key": "frc38",
        "name": "Nonnewaug High School",
        "nickname": "Nonnebots",
        "state_prov": "CT",
        "team_number": 38
    },
    {
        "city": "Gilbert",
        "country": "USA",
        "key": "frc39",
        "name": "Boeing/SIMREX Corporation & Highland High School",
        "nickname": "The 39th Aero Squadron",
        "state_prov": "AZ",
        "team_number": 39
    },
    {
        "city": "Manchester",
        "country": "USA",
        "key": "frc40",
        "name": "intelitek & Trinity High School",
        "nickname": "Checkmate",
        "state_prov": "NH",
        "team_number": 40
    },
    {
        "city": "Warren",
        "country": "USA",
        "key": "frc41",
        "name": "Picatinny Arsenal/Nokia Bell Labs/Petillo Companies/Picut Manufacturing/Warren Lions Club/Thor Labs/The Knotts Company/Watchung Hills Education and Technology Foundation/Gene Haas Foundation&Watchung Hills Reg High School",
        "nickname": "RoboWarriors",
        "state_prov": "New Jersey",
        "team_number": 41
    },
    {
        "city": "Hudson",
        "country": "USA",
        "key": "frc42",
        "name": "Daniel Webster College/HydroCam Corporation & Alvirne H.S.",
        "nickname": "P.A.R.T.S. (Precision Alvirne Robotics Team Systems)",
        "state_prov": "NH",
        "team_number": 42
    },
    {
        "city": "Kokomo",
        "country": "USA",
        "key": "frc45",
        "name": "Kokomo School Corporation/AndyMark, Inc./Duke Energy/Gene Haas Foundation/Solidarity Federal Credit Union/BorgWarner/Indiana Department of Education&Kokomo High School",
        "nickname": "TechnoKats Robotics Team",
        "state_prov": "Indiana",
        "team_number": 45
    },
    {
        "city": null,
        "country": null,
        "key": "frc46",
        "name": "Team 46",
        "nickname": "Category5",
        "state_prov": null,
        "team_number": 46
    },
    {
        "city": "Pontiac",
        "country": "USA",
        "key": "frc47",
        "name": "Delphi Corporation/The Chrysler Foundation & Pontiac Central High School",
        "nickname": "Chief Delphi",
        "state_prov": "MI",
        "team_number": 47
    },
    {
        "city": "Warren",
        "country": "USA",
        "key": "frc48",
        "name": "Warren City Schools/Howmet Aerospace/Aptiv&Warren G Harding High School",
        "nickname": "Team E.L.I.T.E.",
        "state_prov": "Ohio",
        "team_number": 48
    },
    {
        "city": "Saginaw",
        "country": "USA",
        "key": "frc49",
        "name": "Dow Chemical Company/Nexteer Steering Systems/Sign Depot/ALRO Steel/KMT Robot Solutions & Buena Vista High School",
        "nickname": "Robotic Knights",
        "state_prov": "MI",
        "team_number": 49
    },
    {
        "city": "Pontiac",
        "country": "USA",
        "key": "frc51",
        "name": "GM Propulsion Systems/APTIV/Ford Foundation/The School District of the City of Pontiac & International Technology Acad & Pontiac High School",
        "nickname": "Wings of Fire",
        "state_prov": "Michigan",
        "team_number": 51
    },
    {
        "city": null,
        "country": null,
        "key": "frc52",
        "name": "Team 52",
        "nickname": "Robotworks Y",
        "state_prov": null,
        "team_number": 52
    },
    {
        "city": "Greenbelt",
        "country": "USA",
        "key": "frc53",
        "name": "Army Research Laboratory/Maryland Space Business Roundtable & Eleanor Roosevelt High",
        "nickname": "Area 53",
        "state_prov": "Maryland",
        "team_number": 53
    },
    {
        "city": null,
        "country": null,
        "key": "frc55",
        "name": "Team 55",
        "nickname": "Team 55",
        "state_prov": null,
        "team_number": 55
    },
    {
        "city": "Bound Brook",
        "country": "USA",
        "key": "frc56",
        "name": "Bound Brook School District/Johnson & Johnson MedTech/Bridgewater Commons Mall/Picatinny Arsenal/Department of Defense (DoD)/L3Harris Technologies/Home Plate Catering/Fraternal Order of Eagles - Somerset Aerie #2137/Bound Brook Elks Lodge #1388/Bound Brook/Somerset Moose Lodge #988/VFW Post 2290/Gene Haus Foundation/Kyndryl/Exxon Mobile&Bound Brook High School",
        "nickname": "R.O.B.B.E.",
        "state_prov": "New Jersey",
        "team_number": 56
    },
    {
        "city": "Houston",
        "country": "USA",
        "key": "frc57",
        "name": "Hydraquip Custom Systems Inc./Andy's Hardware/Arc Specialties/CenterPoint Energy Give/Chevron/Country Pure Foods/Employee Owned Holdings Inc./ExxonMobil/Hydraquip Distribution Inc./GE Sensing/Walter P. Moore & Washington B T H S",
        "nickname": "Leopards",
        "state_prov": "Texas",
        "team_number": 57
    },
    {
        "city": "South Portland",
        "country": "USA",
        "key": "frc58",
        "name": "South Portland School Department/Casco Point Psychological Services/Generac/Building STEAM/Diodes Incorporated/IBEW Local 567&South Portland High School",
        "nickname": "The Riot Crew",
        "state_prov": "Maine",
        "team_number": 58
    },
    {
        "city": "Miami",
        "country": "USA",
        "key": "frc59",
        "name": "RamTech 59 from Miami Coral Park Senior High/Motorola Solutions Foundation/Florida Power & Light/John Deere/Suncoast Elevator Solutions/Seaboard Marine/Dr. Lee Swanger PE/Department of Defense/Lockheed Martin/Miami-Dade County Public Schools CTE Department/Boeing/Jose Milton Foundation/Ryder Truck Leasing&Miami Coral Park Sr High Sch",
        "nickname": "RamTech",
        "state_prov": "Florida",
        "team_number": 59
    },
    {
        "city": "Kingman",
        "country": "USA",
        "key": "frc60",
        "name": "Preston Investments/KRMC FOUNDATION/Lomanco, Inc/Brackett Aircraft Co Inc/Mohave County/Philpot/American Woodmark/I Corp/Optimum/Freiday Construction/Desert Construction/Call Center USA/Drinking Age Motors/Leggett Engineering/M-14P Inc/Kingman Soroptimist/Kingman Rotary/Mohave County School Superintendent/Purvis Industries & Kingman Academy of Learning HS & Kingman Middle School & White Cliffs Middle School & Lee Williams High School & ASU Prepratory digital school & Kingman High School",
        "nickname": "Kingman FIRST Robotics Team 60 (The Bionic Bulldogs)",
        "state_prov": "Arizona",
        "team_number": 60
    },
    {
        "city": "Upton",
        "country": "USA",
        "key": "frc61",
        "name": "TE Connectivity/WAGO/Foster-Miller&Blackstone Vly Reg Voc Tech HS",
        "nickname": "BVT Robotics",
        "state_prov": "Massachusetts",
        "team_number": 61
    },
    {
        "city": null,
        "country": null,
        "key": "frc62",
        "name": "Team 62",
        "nickname": "Team 62",
        "state_prov": null,
        "team_number": 62
    },
    {
        "city": "Erie",
        "country": "USA",
        "key": "frc63",
        "name": "Millcreek Township School District/Wabtec/Gene Haas Foundation/Reed Manufacturing/Plastek/Advanced Welding Technologies/WM.T. Spaeder/Area Tool and Manufacturing/Gannon University/Penn State Behrend University/Bonnell's Auto Group&Mcdowell Senior High School",
        "nickname": "McDowell Robotics Team 63",
        "state_prov": "Pennsylvania",
        "team_number": 63
    },
    {
        "city": "Mesa",
        "country": "USA",
        "key": "frc64",
        "name": "General Motors - DPG/General Motors Desert Proving Ground & Queen Creek High School",
        "nickname": "Gila Monsters",
        "state_prov": "AZ",
        "team_number": 64
    },
    {
        "city": "Pontiac",
        "country": "USA",
        "key": "frc65",
        "name": "GM Powertrain & Pontiac Northern High School",
        "nickname": "The Huskie Brigade",
        "state_prov": "MI",
        "team_number": 65
    },
    {
        "city": "Ypsilanti",
        "country": "USA",
        "key": "frc66",
        "name": "General Motors Corp/Michigan Department of Education&Ypsilanti STEMM Middle College",
        "nickname": "Grizzly Robotics",
        "state_prov": "Michigan",
        "team_number": 66
    },
    {
        "city": "Commerce Township",
        "country": "USA",
        "key": "frc67",
        "name": "General Motors Milford Proving Ground & Huron Valley Schools",
        "nickname": "The HOT Team",
        "state_prov": "Michigan",
        "team_number": 67
    },
    {
        "city": "Ortonville",
        "country": "USA",
        "key": "frc68",
        "name": "General Motors/Michigan Department of Education/Smith Family Trust/Shannon Precision Fastener/Kawasaki Robotics/JR Automation/B.A.M. Telecommunications/Entech Staffing Solutions/Treasured Roses Anime/China Fare Restaurant/Hungry Howies-Ortonville/Kotz Heating & Air Conditioning/Cole's Machine Inc&Brandon High School",
        "nickname": "Truck Town Thunder",
        "state_prov": "Michigan",
        "team_number": 68
    },
    {
        "city": "Quincy",
        "country": "USA",
        "key": "frc69",
        "name": "Granite Telecommunications/P & G Gillette&Quincy Public Schools",
        "nickname": "HYPER",
        "state_prov": "Massachusetts",
        "team_number": 69
    },
    {
        "city": "Goodrich",
        "country": "USA",
        "key": "frc70",
        "name": "General Motors / State of Michigan / Fiat Chrysler Automotive Foundation / Kettering University / Patti Engineering / Leoni / Midstates Bolt & Screw Co. / Mid Michigan Robotics Alliance / Polyflex Products / Spentech / Ford Motor & Goodrich High School",
        "nickname": "More Martians",
        "state_prov": "Michigan",
        "team_number": 70
    },
    {
        "city": "Hammond",
        "country": "USA",
        "key": "frc71",
        "name": "School City of Hammond/Caterpillar/City of Hammond/Bemcor International/Tri State Automation&Area Career Center",
        "nickname": "Team Hammond",
        "state_prov": "Indiana",
        "team_number": 71
    },
    {
        "city": "Rochester",
        "country": "USA",
        "key": "frc73",
        "name": "ME Engineering/RIT FIRST Club/Ron Zarrella & Rochester Science, Technology, Engineering and Mat",
        "nickname": "The Illumination",
        "state_prov": "New York",
        "team_number": 73
    },
    {
        "city": "Holland",
        "country": "USA",
        "key": "frc74",
        "name": "Haworth Inc./Russells Technical Products/Up and Running Software/A.D. Bos Vending Services&Black River Public School&Holland High School",
        "nickname": "Team CHAOS",
        "state_prov": "Michigan",
        "team_number": 74
    },
    {
        "city": "Hillsborough",
        "country": "USA",
        "key": "frc75",
        "name": "Kenvue/Richmond Foundation/Johnson & Johnson/PART 75/Picatinny Arsenal/DOD/Summit Associates/Mailbox Business Center/Active Disposal/Rotary Club & Hillsborough High School",
        "nickname": "RoboRaiders",
        "state_prov": "New Jersey",
        "team_number": 75
    },
    {
        "city": null,
        "country": null,
        "key": "frc77",
        "name": "Team 77",
        "nickname": "Team 77",
        "state_prov": null,
        "team_number": 77
    },
    {
        "city": "Newport",
        "country": "USA",
        "key": "frc78",
        "name": "Naval Undersea Warfare Center/DoD STEM/Teri Degnan Real Estate and Consulting/South Coast Powdercoating&Aquidneck Island Robotics",
        "nickname": "AIR STRIKE",
        "state_prov": "Rhode Island",
        "team_number": 78
    },
    {
        "city": "Oldsmar",
        "country": "USA",
        "key": "frc79",
        "name": "Honeywell Aerospace/State of Florida&Family/Community",
        "nickname": "Team 79 Krunch",
        "state_prov": "Florida",
        "team_number": 79
    },
    {
        "city": "Phoenix",
        "country": "USA",
        "key": "frc80",
        "name": "DeVry University & Cortez High School",
        "nickname": "Robocolt",
        "state_prov": "AZ",
        "team_number": 80
    },
    {
        "city": "Freeport",
        "country": "USA",
        "key": "frc81",
        "name": "Honeywell / Freeport School District 145 / Ultrasonic Power Corporation / Trez Turning / Morse Electric / Kiwanis Clubs of Freeport / RestorX / Papa Murphy's / Atkins Energy / Culver's of Freeport & Freeport High School & Lena-Winslow High School",
        "nickname": "MetalHeads",
        "state_prov": "Illinois",
        "team_number": 81
    },
    {
        "city": "Towanda",
        "country": "USA",
        "key": "frc84",
        "name": "DuPont/NE PA Tech Prep Consortium & Athens Area School District & Northeast Bradford School District & Towanda Area School District & Troy Area School District",
        "nickname": "Chuck 84",
        "state_prov": "PA",
        "team_number": 84
    },
    {
        "city": "Zeeland",
        "country": "USA",
        "key": "frc85",
        "name": "Midway Machine Technologies/Gentex/Koops/Haas/ITW Drawform/Superior Cutting Services/JR Automation/Zeeland Farm Service/Mission Design and Automation/Disher Design/Royal Technologies/BoltBin/Holland Stitchcraft/R.S. Carpentry Inc/Orlando & Co Catering/Meijer/Townline Hatchery&Zeeland West High School&Zeeland East High School",
        "nickname": "B.O.B. (Built on Brains)",
        "state_prov": "Michigan",
        "team_number": 85
    },
    {
        "city": "Jacksonville",
        "country": "USA",
        "key": "frc86",
        "name": "JEA/Johnson and Johnson Vision Care/State of Florida/Black and Veatch Engineering/Duval County Public Schools/Alro Metals Plus&Family/Community&Renaissance Jax Inc",
        "nickname": "Team Resistance",
        "state_prov": "Florida",
        "team_number": 86
    },
    {
        "city": "Mount Holly",
        "country": "USA",
        "key": "frc87",
        "name": "Lockheed Martin/COMCAST-NBC Universal/Metal Specialists/Lowe's of Lumberton, NJ/Inductotherm&Rancocas Valley Region HS",
        "nickname": "Diablo",
        "state_prov": "New Jersey",
        "team_number": 87
    },
    {
        "city": "Bridgewater",
        "country": "USA",
        "key": "frc88",
        "name": "DePuy Synthese, Inc. / Harpak Ulma & Bridgewater-Raynham Reg HS",
        "nickname": "TJ²",
        "state_prov": "Massachusetts",
        "team_number": 88
    },
    {
        "city": "PA",
        "country": null,
        "key": "frc89",
        "name": "Team 89",
        "nickname": "Team 89",
        "state_prov": "USA",
        "team_number": 89
    },
    {
        "city": null,
        "country": null,
        "key": "frc90",
        "name": "Team 90",
        "nickname": "Team 90",
        "state_prov": null,
        "team_number": 90
    },
    {
        "city": "Lincolnshire",
        "country": "USA",
        "key": "frc92",
        "name": "MPC Products & Adlai E. Stevenson High School",
        "nickname": "RoboPats",
        "state_prov": "IL",
        "team_number": 92
    },
    {
        "city": "Appleton",
        "country": "USA",
        "key": "frc93",
        "name": "Plexus Corp./Appleton Area School District/Eagle Performance Plastics/IVI/Pierce Manufacturing/Valmet/Boldt/Miller Electric Manufacturing&Appleton East High School&Appleton West High School&Appleton North High School&Tesla Engineering Charter Sch",
        "nickname": "NEW Apple Corps",
        "state_prov": "Wisconsin",
        "team_number": 93
    },
    {
        "city": "Southfield",
        "country": "USA",
        "key": "frc94",
        "name": "Michigan Department of Education Pending Approval/nobody/nobody&Southfield Hs-Arts & Tech",
        "nickname": "The  TechnoJays",
        "state_prov": "Michigan",
        "team_number": 94
    },
    {
        "city": "White River Junction",
        "country": "USA",
        "key": "frc95",
        "name": "Hartford Area Career and Technology Center/Progressive Manufacturing/Hypertherm/Fujifilm Dimatix/OnShape/Dodd Stacy/REV&Hartford Area Career-Tech Ctr",
        "nickname": "Grasshoppers",
        "state_prov": "Vermont",
        "team_number": 95
    },
    {
        "city": "Springfield",
        "country": "USA",
        "key": "frc96",
        "name": "PUTNAM VOCATIONAL",
        "nickname": "JESTER",
        "state_prov": "MA",
        "team_number": 96
    },
    {
        "city": "Cambridge",
        "country": "USA",
        "key": "frc97",
        "name": "Cambridge Rindge and Latin School/Gene Haas Foundation/Rindge School of Technical Arts/Analog Devices/Google&Cambridge Rindge & Latin HS",
        "nickname": "Bionic Beef",
        "state_prov": "Massachusetts",
        "team_number": 97
    },
    {
        "city": null,
        "country": null,
        "key": "frc98",
        "name": "Team 98",
        "nickname": "Team 98",
        "state_prov": null,
        "team_number": 98
    },
    {
        "city": "Woodside",
        "country": "USA",
        "key": "frc100",
        "name": "Salesky.dev/Viasat/Dome Construction/Gene Haas Foundation/Boeing/Pacific Gas and Electric/Lockheed Martin/Alan Steel and Supply Company/Amgen/Intuative Foundation/PG&E/Woodside High School&Woodside High School",
        "nickname": "The Wildhats",
        "state_prov": "California",
        "team_number": 100
    },
    {
        "city": "Chicago",
        "country": "USA",
        "key": "frc101",
        "name": "ClusterBlue/Friends of Striker/Anderson Electric & St Patrick High School",
        "nickname": "Striker",
        "state_prov": "Illinois",
        "team_number": 101
    },
    {
        "city": "Somerville",
        "country": "USA",
        "key": "frc102",
        "name": "Johnson & Johnson Consumer Supply Chain/Piccatinny Arsenal/Department of Defense/Comcast/ExxonMobil/Air Liquide/Dr. Victor J. Bauer&Somerville High School",
        "nickname": "The Gearheads",
        "state_prov": "New Jersey",
        "team_number": 102
    },
    {
        "city": "Kintnersville",
        "country": "USA",
        "key": "frc103",
        "name": "MAR VAN Industries/In Memory of Rich Nast/In memory of Jamie Wright/REV Robotics/Kintner LLC&Palisades High School",
        "nickname": "Cybersonics",
        "state_prov": "Pennsylvania",
        "team_number": 103
    },
    {
        "city": "West Chester",
        "country": "USA",
        "key": "frc104",
        "name": "MEI & WCASD High Schools",
        "nickname": "Team Universal",
        "state_prov": "PA",
        "team_number": 104
    },
    {
        "city": "CHARLTON",
        "country": "USA",
        "key": "frc105",
        "name": "Team 105",
        "nickname": "Team 105",
        "state_prov": "MA",
        "team_number": 105
    },
    {
        "city": "phila",
        "country": "USA",
        "key": "frc106",
        "name": "Team 106",
        "nickname": "Team 106",
        "state_prov": "PA",
        "team_number": 106
    },
    {
        "city": "Holland",
        "country": "USA",
        "key": "frc107",
        "name": "3 Mile Project/Tommy's Express Car Wash/Barber Ford/Koops/JR Automation/Disher/Metal Flow/Twisthink/Bradford Just-In-Time Packaging/SoundOff Signal/Fleet Refinishing Work/Mike Schaap Builder/K-Line Industries/Choice Machinery Group&Holland Christian High School",
        "nickname": "Team R.O.B.O.T.I.C.S.",
        "state_prov": "Michigan",
        "team_number": 107
    },
    {
        "city": "Fort Lauderdale",
        "country": "USA",
        "key": "frc108",
        "name": "Motorola Solutions Foundation/Dillard Technology Foundation/Apex Machine Company/Alro Metals/Gene Haas Foundation/Certified Metal Finishing/Custom Precision Technologies/Dillard High School/REV Robotics&Dillard High School",
        "nickname": "SigmaC@T Robotics Team",
        "state_prov": "Florida",
        "team_number": 108
    },
    {
        "city": "Libertyville",
        "country": "USA",
        "key": "frc109",
        "name": "Team 109",